goiania_leste_dss/TR3/CTMT_5002409.dss
! ==============================================================================
! ALIMENTADOR CTMT_5002409 - GOIANIA LESTE-1
! Subestacao: Trafo TR3 (GOL-S-TRF-TR3) | Barra MT: 4630 -> PAC_INI: 84799235002409
! ==============================================================================

! 1. Disjuntor de Saida MT do Alimentador
new line.DJ_5002409 phases=3 bus1=4630 bus2=84799235002409 switch=y r1=1e-4 x1=1e-4 length=0.001 units=km

! 2. Linhas de Media Tensao (MT)
new line.53107969 phases=3 bus1=82285765002409B.1.2.3 bus2=94308185002409.1.2.3 r1=0.195 x1=0.4 length=0.011514 units=km normamps=419.0
new line.53108860 phases=3 bus1=82223055002409.1.2.3 bus2=82222315002409.1.2.3 r1=0.236 x1=0.27 length=0.036293 units=km normamps=456.0
new line.53108861 phases=3 bus1=82222315002409.1.2.3 bus2=82222325002409.1.2.3 r1=0.236 x1=0.27 length=0.03808 units=km normamps=456.0
new line.53108862 phases=3 bus1=82222325002409.1.2.3 bus2=82222335002409.1.2.3 r1=0.236 x1=0.27 length=0.038647 units=km normamps=456.0
new line.53108863 phases=3 bus1=82222335002409.1.2.3 bus2=82222385002409.1.2.3 r1=0.236 x1=0.27 length=0.037524 units=km normamps=456.0
new line.53108864 phases=3 bus1=82222385002409.1.2.3 bus2=82222395002409.1.2.3 r1=0.236 x1=0.27 length=0.037284 units=km normamps=456.0
new line.53108865 phases=3 bus1=82222395002409.1.2.3 bus2=82222435002409.1.2.3 r1=0.236 x1=0.27 length=0.032863 units=km normamps=456.0
new line.53108866 phases=3 bus1=82222435002409.1.2.3 bus2=82222445002409.1.2.3 r1=0.236 x1=0.27 length=0.036887 units=km normamps=456.0
new line.53108867 phases=3 bus1=82222445002409.1.2.3 bus2=82222455002409.1.2.3 r1=0.236 x1=0.27 length=0.035139 units=km normamps=456.0
new line.53108868 phases=3 bus1=82222455002409.1.2.3 bus2=82221825002409.1.2.3 r1=0.236 x1=0.27 length=0.017704 units=km normamps=456.0
new line.53108869 phases=3 bus1=82221825002409.1.2.3 bus2=82311765002409.1.2.3 r1=0.236 x1=0.27 length=0.027672 units=km normamps=456.0
new line.53108900 phases=3 bus1=82308135002409.1.2.3 bus2=93632095002409.1.2.3 r1=0.236 x1=0.27 length=0.012021 units=km normamps=456.0
new line.53117789 phases=3 bus1=82358255002409.1.2.3 bus2=82358245002409.1.2.3 r1=1.551 x1=0.49 length=0.00746 units=km normamps=114.0
new line.53117790 phases=3 bus1=82358245002409.1.2.3 bus2=82357745002409.1.2.3 r1=1.551 x1=0.49 length=0.038938 units=km normamps=114.0
new line.53117791 phases=3 bus1=82357295002409.1.2.3 bus2=80435895002409.1.2.3 r1=0.195 x1=0.4 length=0.03627 units=km normamps=419.0
new line.53117792 phases=3 bus1=80435435002409.1.2.3 bus2=80435425002409.1.2.3 r1=0.188 x1=0.26 length=0.05376 units=km normamps=525.0
new line.53117793 phases=3 bus1=82358285002409.1.2.3 bus2=82358105002409.1.2.3 r1=0.975 x1=0.47 length=0.025445 units=km normamps=152.0
new line.53117794 phases=3 bus1=82357555002409.1.2.3 bus2=82357195002409.1.2.3 r1=0.975 x1=0.47 length=0.058195 units=km normamps=152.0
new line.53117795 phases=3 bus1=82357745002409.1.2.3 bus2=82357195002409.1.2.3 r1=0.975 x1=0.47 length=0.021955 units=km normamps=152.0
new line.53117796 phases=3 bus1=82357185002409.1.2.3 bus2=82358505002409.1.2.3 r1=0.975 x1=0.47 length=0.043499 units=km normamps=152.0
new line.53117797 phases=3 bus1=82357255002409.1.2.3 bus2=82357265002409B.1.2.3 r1=1.551 x1=0.49 length=0.022497 units=km normamps=114.0
new line.53117798 phases=3 bus1=82357285002409.1.2.3 bus2=82357305002409.1.2.3 r1=0.195 x1=0.4 length=0.015874 units=km normamps=419.0
new line.53117799 phases=3 bus1=82357295002409.1.2.3 bus2=82357285002409.1.2.3 r1=0.195 x1=0.4 length=0.022426 units=km normamps=419.0
new line.53117800 phases=3 bus1=82357265002409.1.2.3 bus2=82357305002409.1.2.3 r1=1.551 x1=0.49 length=0.02068 units=km normamps=114.0
new line.53117801 phases=3 bus1=82357305002409.1.2.3 bus2=82357315002409.1.2.3 r1=1.551 x1=0.49 length=0.017858 units=km normamps=114.0
new line.53117802 phases=3 bus1=82357315002409B.1.2.3 bus2=82357325002409.1.2.3 r1=1.551 x1=0.49 length=0.025287 units=km normamps=114.0
new line.53117803 phases=3 bus1=82357325002409.1.2.3 bus2=82357335002409.1.2.3 r1=1.551 x1=0.49 length=0.025297 units=km normamps=114.0
new line.53117804 phases=3 bus1=82357335002409.1.2.3 bus2=82357345002409.1.2.3 r1=1.551 x1=0.49 length=0.051586 units=km normamps=114.0
new line.53117805 phases=3 bus1=82357365002409.1.2.3 bus2=82357345002409.1.2.3 r1=1.551 x1=0.49 length=0.046647 units=km normamps=114.0
new line.53117806 phases=3 bus1=82357375002409.1.2.3 bus2=82357365002409.1.2.3 r1=1.551 x1=0.49 length=0.037543 units=km normamps=114.0
new line.53117807 phases=3 bus1=82357385002409.1.2.3 bus2=82357375002409.1.2.3 r1=1.551 x1=0.49 length=0.03169 units=km normamps=114.0
new line.53117808 phases=3 bus1=82357305002409.1.2.3 bus2=82357405002409.1.2.3 r1=0.195 x1=0.4 length=0.03789 units=km normamps=419.0
new line.53117809 phases=3 bus1=82357405002409.1.2.3 bus2=82357415002409.1.2.3 r1=0.195 x1=0.4 length=0.031583 units=km normamps=419.0
new line.53117810 phases=3 bus1=82357415002409.1.2.3 bus2=82357425002409.1.2.3 r1=0.195 x1=0.4 length=0.047439 units=km normamps=419.0
new line.53117811 phases=3 bus1=82357465002409.1.2.3 bus2=82357445002409.1.2.3 r1=0.195 x1=0.4 length=0.032006 units=km normamps=419.0
new line.53117812 phases=3 bus1=82357445002409.1.2.3 bus2=82357425002409.1.2.3 r1=0.195 x1=0.4 length=0.019021 units=km normamps=419.0
new line.53117813 phases=3 bus1=82357475002409.1.2.3 bus2=82357465002409.1.2.3 r1=0.195 x1=0.4 length=0.023784 units=km normamps=419.0
new line.53117814 phases=3 bus1=82357495002409.1.2.3 bus2=82357475002409.1.2.3 r1=0.195 x1=0.4 length=0.05263 units=km normamps=419.0
new line.53117815 phases=3 bus1=82357505002409.1.2.3 bus2=82357495002409.1.2.3 r1=0.195 x1=0.4 length=0.034297 units=km normamps=419.0
new line.53117816 phases=3 bus1=80434555002409.1.2.3 bus2=82357505002409.1.2.3 r1=0.195 x1=0.4 length=0.022174 units=km normamps=419.0
new line.53117817 phases=3 bus1=80434565002409.1.2.3 bus2=80434555002409.1.2.3 r1=0.195 x1=0.4 length=0.042109 units=km normamps=419.0
new line.53117818 phases=3 bus1=80434585002409.1.2.3 bus2=80434565002409.1.2.3 r1=0.195 x1=0.4 length=0.038436 units=km normamps=419.0
new line.53117819 phases=3 bus1=80434595002409.1.2.3 bus2=80434585002409.1.2.3 r1=0.195 x1=0.4 length=0.041622 units=km normamps=419.0
new line.53117820 phases=3 bus1=80434605002409.1.2.3 bus2=80434595002409.1.2.3 r1=0.195 x1=0.4 length=0.038242 units=km normamps=419.0
new line.53117821 phases=3 bus1=80434565002409B.1.2.3 bus2=80434615002409.1.2.3 r1=0.975 x1=0.47 length=0.036653 units=km normamps=152.0
new line.53117822 phases=3 bus1=82357535002409.1.2.3 bus2=80434615002409.1.2.3 r1=0.975 x1=0.47 length=0.025697 units=km normamps=152.0
new line.53117823 phases=3 bus1=82357545002409.1.2.3 bus2=82357535002409.1.2.3 r1=0.975 x1=0.47 length=0.04136 units=km normamps=152.0
new line.53117824 phases=3 bus1=82357555002409.1.2.3 bus2=82357545002409.1.2.3 r1=0.975 x1=0.47 length=0.014641 units=km normamps=152.0
new line.53117825 phases=3 bus1=82357565002409.1.2.3 bus2=82357555002409.1.2.3 r1=0.975 x1=0.47 length=0.011013 units=km normamps=152.0
new line.53117826 phases=3 bus1=82357555002409.1.2.3 bus2=82357575002409.1.2.3 r1=0.975 x1=0.47 length=0.027621 units=km normamps=152.0
new line.53117827 phases=3 bus1=80434965002409.1.2.3 bus2=80434955002409B.1.2.3 r1=0.195 x1=0.4 length=0.026899 units=km normamps=419.0
new line.53117828 phases=3 bus1=80434955002409.1.2.3 bus2=82357955002409.1.2.3 r1=0.195 x1=0.4 length=0.034495 units=km normamps=419.0
new line.53117829 phases=3 bus1=80434965002409.1.2.3 bus2=80434975002409.1.2.3 r1=0.195 x1=0.4 length=0.044754 units=km normamps=419.0
new line.53117830 phases=3 bus1=80434975002409.1.2.3 bus2=80434995002409.1.2.3 r1=0.195 x1=0.4 length=0.03478 units=km normamps=419.0
new line.53117831 phases=3 bus1=80434995002409.1.2.3 bus2=80435005002409.1.2.3 r1=0.195 x1=0.4 length=0.030194 units=km normamps=419.0
new line.53117832 phases=3 bus1=80435005002409.1.2.3 bus2=80435015002409.1.2.3 r1=0.195 x1=0.4 length=0.030194 units=km normamps=419.0
new line.53117833 phases=3 bus1=80435015002409.1.2.3 bus2=80435025002409.1.2.3 r1=0.195 x1=0.4 length=0.034296 units=km normamps=419.0
new line.53117834 phases=3 bus1=80435025002409.1.2.3 bus2=80435035002409.1.2.3 r1=0.195 x1=0.4 length=0.037051 units=km normamps=419.0
new line.53117835 phases=3 bus1=80435035002409.1.2.3 bus2=80435045002409.1.2.3 r1=0.195 x1=0.4 length=0.046194 units=km normamps=419.0
new line.53117836 phases=3 bus1=80435045002409.1.2.3 bus2=80434605002409.1.2.3 r1=0.195 x1=0.4 length=0.03495 units=km normamps=419.0
new line.53117837 phases=3 bus1=82358025002409.1.2.3 bus2=82357565002409.1.2.3 r1=0.975 x1=0.47 length=0.033516 units=km normamps=152.0
new line.53117838 phases=3 bus1=82358085002409.1.2.3 bus2=82358075002409B.1.2.3 r1=0.195 x1=0.4 length=0.029803 units=km normamps=419.0
new line.53117839 phases=3 bus1=82358085002409B.1.2.3 bus2=82358095002409.1.2.3 r1=0.975 x1=0.47 length=0.006859 units=km normamps=152.0
new line.53117840 phases=3 bus1=82358095002409.1.2.3 bus2=82358105002409.1.2.3 r1=0.975 x1=0.47 length=0.040452 units=km normamps=152.0
new line.53117841 phases=3 bus1=82358115002409.1.2.3 bus2=82358085002409.1.2.3 r1=0.195 x1=0.4 length=0.028282 units=km normamps=419.0
new line.53117842 phases=3 bus1=82358125002409.1.2.3 bus2=82358115002409.1.2.3 r1=0.195 x1=0.4 length=0.030506 units=km normamps=419.0
new line.53117843 phases=3 bus1=82358135002409.1.2.3 bus2=82358125002409.1.2.3 r1=0.195 x1=0.4 length=0.031749 units=km normamps=419.0
new line.53117844 phases=3 bus1=82358155002409.1.2.3 bus2=82358135002409.1.2.3 r1=0.195 x1=0.4 length=0.045261 units=km normamps=419.0
new line.53117845 phases=3 bus1=80435425002409.1.2.3 bus2=82358075002409.1.2.3 r1=0.236 x1=0.27 length=0.031514 units=km normamps=456.0
new line.53117846 phases=3 bus1=82358195002409.1.2.3 bus2=82358155002409.1.2.3 r1=0.195 x1=0.4 length=0.037221 units=km normamps=419.0
new line.53117847 phases=3 bus1=82358205002409.1.2.3 bus2=82358195002409.1.2.3 r1=0.195 x1=0.4 length=0.047623 units=km normamps=419.0
new line.53117848 phases=3 bus1=82357955002409.1.2.3 bus2=82358205002409.1.2.3 r1=0.195 x1=0.4 length=0.034591 units=km normamps=419.0
new line.53117849 phases=3 bus1=82360095002409.1.2.3 bus2=82360555002409.1.2.3 r1=0.195 x1=0.4 length=0.04476 units=km normamps=419.0
new line.53117850 phases=3 bus1=82360555002409.1.2.3 bus2=82360055002409.1.2.3 r1=0.195 x1=0.4 length=0.029698 units=km normamps=419.0
new line.53117851 phases=3 bus1=80435895002409.1.2.3 bus2=80436485002409.1.2.3 r1=0.195 x1=0.4 length=0.031582 units=km normamps=419.0
new line.53117852 phases=3 bus1=82358775002409.1.2.3 bus2=82358765002409.1.2.3 r1=0.195 x1=0.4 length=0.0333 units=km normamps=419.0
new line.53117853 phases=3 bus1=82358765002409.1.2.3 bus2=82358785002409.1.2.3 r1=0.195 x1=0.4 length=0.038433 units=km normamps=419.0
new line.53117854 phases=3 bus1=82358785002409.1.2.3 bus2=82358795002409.1.2.3 r1=0.195 x1=0.4 length=0.017383 units=km normamps=419.0
new line.53117855 phases=3 bus1=80436485002409.1.2.3 bus2=80437705002409.1.2.3 r1=0.195 x1=0.4 length=0.036417 units=km normamps=419.0
new line.53117856 phases=3 bus1=80437705002409.1.2.3 bus2=80437715002409.1.2.3 r1=0.195 x1=0.4 length=0.035716 units=km normamps=419.0
new line.53117857 phases=3 bus1=80437715002409.1.2.3 bus2=80437725002409.1.2.3 r1=0.195 x1=0.4 length=0.02606 units=km normamps=419.0
new line.53117858 phases=3 bus1=80437725002409.1.2.3 bus2=80437735002409.1.2.3 r1=0.195 x1=0.4 length=0.037999 units=km normamps=419.0
new line.53117859 phases=3 bus1=80437735002409.1.2.3 bus2=80438495002409.1.2.3 r1=0.195 x1=0.4 length=0.008736 units=km normamps=419.0
new line.53117860 phases=3 bus1=80438495002409.1.2.3 bus2=82358795002409.1.2.3 r1=0.195 x1=0.4 length=0.040165 units=km normamps=419.0
new line.53117861 phases=3 bus1=82360325002409.1.2.3 bus2=82360315002409.1.2.3 r1=0.975 x1=0.47 length=0.042029 units=km normamps=152.0
new line.53117862 phases=3 bus1=82360335002409.1.2.3 bus2=82360325002409.1.2.3 r1=0.975 x1=0.47 length=0.041725 units=km normamps=152.0
new line.53117863 phases=3 bus1=82360355002409.1.2.3 bus2=82360345002409.1.2.3 r1=1.551 x1=0.49 length=0.039983 units=km normamps=114.0
new line.53117864 phases=3 bus1=82360365002409.1.2.3 bus2=82360355002409.1.2.3 r1=1.551 x1=0.49 length=0.03887 units=km normamps=114.0
new line.53117865 phases=3 bus1=82360375002409.1.2.3 bus2=82360365002409.1.2.3 r1=1.551 x1=0.49 length=0.042556 units=km normamps=114.0
new line.53117866 phases=3 bus1=82360385002409.1.2.3 bus2=82360375002409.1.2.3 r1=1.551 x1=0.49 length=0.028078 units=km normamps=114.0
new line.53117867 phases=3 bus1=82360395002409.1.2.3 bus2=82360385002409.1.2.3 r1=1.551 x1=0.49 length=0.031756 units=km normamps=114.0
new line.53117868 phases=3 bus1=82360405002409.1.2.3 bus2=82360395002409.1.2.3 r1=1.551 x1=0.49 length=0.009641 units=km normamps=114.0
new line.53117869 phases=3 bus1=82360395002409.1.2.3 bus2=82360415002409.1.2.3 r1=1.551 x1=0.49 length=0.019897 units=km normamps=114.0
new line.53117870 phases=3 bus1=82359135002409.1.2.3 bus2=82360395002409.1.2.3 r1=1.551 x1=0.49 length=0.015953 units=km normamps=114.0
new line.53117871 phases=3 bus1=82359145002409.1.2.3 bus2=82360405002409.1.2.3 r1=1.551 x1=0.49 length=0.034601 units=km normamps=114.0
new line.53117872 phases=3 bus1=82359155002409.1.2.3 bus2=82359145002409.1.2.3 r1=1.551 x1=0.49 length=0.036869 units=km normamps=114.0
new line.53117873 phases=3 bus1=82359165002409.1.2.3 bus2=82359155002409.1.2.3 r1=1.551 x1=0.49 length=0.036022 units=km normamps=114.0
new line.53117874 phases=3 bus1=82359175002409.1.2.3 bus2=82359165002409.1.2.3 r1=1.551 x1=0.49 length=0.006859 units=km normamps=114.0
new line.53117875 phases=3 bus1=82359185002409.1.2.3 bus2=82359175002409.1.2.3 r1=1.551 x1=0.49 length=0.02955 units=km normamps=114.0
new line.53117876 phases=3 bus1=82359235002409.1.2.3 bus2=82359245002409.1.2.3 r1=1.551 x1=0.49 length=0.033182 units=km normamps=114.0
new line.53117877 phases=3 bus1=82359245002409.1.2.3 bus2=82359255002409.1.2.3 r1=1.551 x1=0.49 length=0.039449 units=km normamps=114.0
new line.53117878 phases=3 bus1=82359255002409.1.2.3 bus2=82359175002409.1.2.3 r1=1.551 x1=0.49 length=0.016168 units=km normamps=114.0
new line.53117879 phases=3 bus1=82359175002409.1.2.3 bus2=82359265002409.1.2.3 r1=1.551 x1=0.49 length=0.017413 units=km normamps=114.0
new line.53117880 phases=3 bus1=82359265002409.1.2.3 bus2=82359275002409.1.2.3 r1=1.551 x1=0.49 length=0.030109 units=km normamps=114.0
new line.53117881 phases=3 bus1=82359395002409.1.2.3 bus2=82359405002409.1.2.3 r1=0.975 x1=0.47 length=0.028078 units=km normamps=152.0
new line.53117882 phases=3 bus1=82359405002409.1.2.3 bus2=82359415002409.1.2.3 r1=0.975 x1=0.47 length=0.030969 units=km normamps=152.0
new line.53117883 phases=3 bus1=82359515002409.1.2.3 bus2=82359235002409.1.2.3 r1=1.551 x1=0.49 length=0.025582 units=km normamps=114.0
new line.53117884 phases=3 bus1=82359615002409.1.2.3 bus2=82359605002409.1.2.3 r1=0.975 x1=0.47 length=0.030965 units=km normamps=152.0
new line.53117885 phases=3 bus1=82359635002409.1.2.3 bus2=82359625002409.1.2.3 r1=0.975 x1=0.47 length=0.020451 units=km normamps=152.0
new line.53117886 phases=3 bus1=82359625002409.1.2.3 bus2=82359615002409.1.2.3 r1=0.975 x1=0.47 length=0.028641 units=km normamps=152.0
new line.53117887 phases=3 bus1=82359735002409.1.2.3 bus2=82359745002409.1.2.3 r1=0.975 x1=0.47 length=0.014819 units=km normamps=152.0
new line.53117888 phases=3 bus1=82359745002409.1.2.3 bus2=82360335002409.1.2.3 r1=0.975 x1=0.47 length=0.026125 units=km normamps=152.0
new line.53117889 phases=3 bus1=82359745002409.1.2.3 bus2=82359755002409.1.2.3 r1=0.975 x1=0.47 length=0.01203 units=km normamps=152.0
new line.53117890 phases=3 bus1=82359775002409.1.2.3 bus2=82359745002409.1.2.3 r1=0.975 x1=0.47 length=0.026061 units=km normamps=152.0
new line.53117891 phases=3 bus1=82359785002409.1.2.3 bus2=82359775002409.1.2.3 r1=0.975 x1=0.47 length=0.028809 units=km normamps=152.0
new line.53117892 phases=3 bus1=82359805002409.1.2.3 bus2=82359795002409.1.2.3 r1=1.551 x1=0.49 length=0.024732 units=km normamps=114.0
new line.53117893 phases=3 bus1=82360345002409.1.2.3 bus2=82359805002409.1.2.3 r1=1.551 x1=0.49 length=0.025808 units=km normamps=114.0
new line.53117894 phases=3 bus1=82359795002409.1.2.3 bus2=82359785002409.1.2.3 r1=0.975 x1=0.47 length=0.026527 units=km normamps=152.0
new line.53117895 phases=3 bus1=82359815002409.1.2.3 bus2=82359805002409.1.2.3 r1=1.551 x1=0.49 length=0.023363 units=km normamps=114.0
new line.53117896 phases=3 bus1=82359805002409.1.2.3 bus2=82359825002409.1.2.3 r1=1.551 x1=0.49 length=0.019854 units=km normamps=114.0
new line.53117897 phases=3 bus1=82359825002409.1.2.3 bus2=82359835002409.1.2.3 r1=1.551 x1=0.49 length=0.037221 units=km normamps=114.0
new line.53117898 phases=3 bus1=82359835002409.1.2.3 bus2=82359845002409.1.2.3 r1=1.551 x1=0.49 length=0.036022 units=km normamps=114.0
new line.53117899 phases=3 bus1=82359845002409.1.2.3 bus2=82359855002409.1.2.3 r1=1.551 x1=0.49 length=0.036308 units=km normamps=114.0
new line.53117900 phases=3 bus1=82359855002409.1.2.3 bus2=82359865002409.1.2.3 r1=1.551 x1=0.49 length=0.040552 units=km normamps=114.0
new line.53117901 phases=3 bus1=82359865002409.1.2.3 bus2=98026985002409.1.2.3 r1=1.551 x1=0.49 length=0.016401 units=km normamps=114.0
new line.53117902 phases=3 bus1=82359875002409.1.2.3 bus2=82359885002409.1.2.3 r1=1.551 x1=0.49 length=0.021519 units=km normamps=114.0
new line.53117903 phases=3 bus1=82360055002409.1.2.3 bus2=82360065002409.1.2.3 r1=0.195 x1=0.4 length=0.041106 units=km normamps=419.0
new line.53117904 phases=3 bus1=82360065002409.1.2.3 bus2=82360075002409.1.2.3 r1=0.195 x1=0.4 length=0.012313 units=km normamps=419.0
new line.53117905 phases=3 bus1=82359885002409.1.2.3 bus2=82360095002409.1.2.3 r1=0.195 x1=0.4 length=0.027225 units=km normamps=419.0
new line.53117906 phases=3 bus1=82359885002409.1.2.3 bus2=82360105002409.1.2.3 r1=0.195 x1=0.4 length=0.040241 units=km normamps=419.0
new line.53117907 phases=3 bus1=82360105002409.1.2.3 bus2=82360115002409.1.2.3 r1=0.195 x1=0.4 length=0.032626 units=km normamps=419.0
new line.53117908 phases=3 bus1=82360115002409.1.2.3 bus2=82360125002409.1.2.3 r1=0.195 x1=0.4 length=0.038045 units=km normamps=419.0
new line.53117910 phases=3 bus1=82360135002409.1.2.3 bus2=82359815002409.1.2.3 r1=1.551 x1=0.49 length=0.042999 units=km normamps=114.0
new line.53117911 phases=3 bus1=82360135002409.1.2.3 bus2=82360155002409.1.2.3 r1=1.551 x1=0.49 length=0.040452 units=km normamps=114.0
new line.53117912 phases=3 bus1=82360165002409.1.2.3 bus2=82360175002409.1.2.3 r1=1.551 x1=0.49 length=0.026527 units=km normamps=114.0
new line.53117913 phases=3 bus1=82360155002409.1.2.3 bus2=82360165002409.1.2.3 r1=1.551 x1=0.49 length=0.022979 units=km normamps=114.0
new line.53117914 phases=3 bus1=82360175002409.1.2.3 bus2=82359395002409.1.2.3 r1=0.975 x1=0.47 length=0.01533 units=km normamps=152.0
new line.53117915 phases=3 bus1=82360175002409.1.2.3 bus2=82360185002409.1.2.3 r1=0.975 x1=0.47 length=0.034288 units=km normamps=152.0
new line.53117916 phases=3 bus1=82360185002409.1.2.3 bus2=82360195002409.1.2.3 r1=0.975 x1=0.47 length=0.039453 units=km normamps=152.0
new line.53117917 phases=3 bus1=82360195002409.1.2.3 bus2=82359635002409.1.2.3 r1=0.975 x1=0.47 length=0.012482 units=km normamps=152.0
new line.53117918 phases=3 bus1=82360075002409.1.2.3 bus2=82360945002409.1.2.3 r1=0.195 x1=0.4 length=0.042407 units=km normamps=419.0
new line.53117919 phases=3 bus1=82360945002409.1.2.3 bus2=82360955002409.1.2.3 r1=0.195 x1=0.4 length=0.046425 units=km normamps=419.0
new line.53117920 phases=3 bus1=82360955002409.1.2.3 bus2=82360965002409.1.2.3 r1=0.195 x1=0.4 length=0.030487 units=km normamps=419.0
new line.53117921 phases=3 bus1=82360965002409.1.2.3 bus2=82360975002409.1.2.3 r1=0.195 x1=0.4 length=0.034741 units=km normamps=419.0
new line.53117922 phases=3 bus1=82360975002409.1.2.3 bus2=82360985002409.1.2.3 r1=0.195 x1=0.4 length=0.038734 units=km normamps=419.0
new line.53117923 phases=3 bus1=82360985002409.1.2.3 bus2=94263365002409.1.2.3 r1=0.195 x1=0.4 length=0.007701 units=km normamps=419.0
new line.53117924 phases=3 bus1=82360995002409.1.2.3 bus2=94458595002409.1.2.3 r1=0.195 x1=0.4 length=0.009192 units=km normamps=419.0
new line.53117925 phases=3 bus1=82358625002409.1.2.3 bus2=82360995002409B.1.2.3 r1=0.195 x1=0.4 length=0.055019 units=km normamps=419.0
new line.53117926 phases=3 bus1=82361035002409.1.2.3 bus2=82360065002409.1.2.3 r1=0.975 x1=0.47 length=0.022222 units=km normamps=152.0
new line.53117927 phases=3 bus1=82361045002409.1.2.3 bus2=82361035002409B.1.2.3 r1=0.975 x1=0.47 length=0.034457 units=km normamps=152.0
new line.53117928 phases=3 bus1=82361055002409.1.2.3 bus2=82361045002409.1.2.3 r1=0.975 x1=0.47 length=0.006582 units=km normamps=152.0
new line.53117929 phases=3 bus1=82361065002409.1.2.3 bus2=82361045002409.1.2.3 r1=0.975 x1=0.47 length=0.037715 units=km normamps=152.0
new line.53117930 phases=3 bus1=82360425002409.1.2.3 bus2=82361065002409.1.2.3 r1=0.975 x1=0.47 length=0.034255 units=km normamps=152.0
new line.53117931 phases=3 bus1=82360435002409.1.2.3 bus2=82360425002409.1.2.3 r1=0.975 x1=0.47 length=0.035225 units=km normamps=152.0
new line.53117932 phases=3 bus1=82360465002409.1.2.3 bus2=82360435002409.1.2.3 r1=0.975 x1=0.47 length=0.026645 units=km normamps=152.0
new line.53117933 phases=3 bus1=82366795002409.1.2.3 bus2=82358775002409.1.2.3 r1=0.195 x1=0.4 length=0.048882 units=km normamps=419.0
new line.53117934 phases=3 bus1=82360765002409.1.2.3 bus2=82360755002409.1.2.3 r1=0.975 x1=0.47 length=0.029477 units=km normamps=152.0
new line.53117935 phases=3 bus1=82360775002409.1.2.3 bus2=82360765002409.1.2.3 r1=0.975 x1=0.47 length=0.031145 units=km normamps=152.0
new line.53117936 phases=3 bus1=82360785002409.1.2.3 bus2=82360775002409.1.2.3 r1=0.975 x1=0.47 length=0.029505 units=km normamps=152.0
new line.53117937 phases=3 bus1=82360795002409.1.2.3 bus2=82360785002409.1.2.3 r1=0.975 x1=0.47 length=0.031145 units=km normamps=152.0
new line.53117938 phases=3 bus1=82360805002409.1.2.3 bus2=82360795002409.1.2.3 r1=0.975 x1=0.47 length=0.031425 units=km normamps=152.0
new line.53117939 phases=3 bus1=82360815002409.1.2.3 bus2=82360805002409.1.2.3 r1=0.975 x1=0.47 length=0.028583 units=km normamps=152.0
new line.53117940 phases=3 bus1=82360825002409.1.2.3 bus2=82360815002409.1.2.3 r1=0.975 x1=0.47 length=0.032106 units=km normamps=152.0
new line.53117941 phases=3 bus1=82285775002409.1.2.3 bus2=82364105002409.1.2.3 r1=0.195 x1=0.4 length=0.036612 units=km normamps=419.0
new line.53117942 phases=3 bus1=82364105002409B.1.2.3 bus2=82320735002409.1.2.3 r1=0.975 x1=0.47 length=0.015874 units=km normamps=152.0
new line.53117943 phases=3 bus1=82364105002409.1.2.3 bus2=82363325002409.1.2.3 r1=0.195 x1=0.4 length=0.03417 units=km normamps=419.0
new line.53117944 phases=3 bus1=82364115002409.1.2.3 bus2=82363325002409.1.2.3 r1=0.195 x1=0.4 length=0.009448 units=km normamps=419.0
new line.53117945 phases=3 bus1=82283025002409.1.2.3 bus2=82283035002409B.1.2.3 r1=0.195 x1=0.4 length=0.041267 units=km normamps=419.0
new line.53117946 phases=3 bus1=82283115002409B.1.2.3 bus2=82360825002409.1.2.3 r1=0.975 x1=0.47 length=0.034086 units=km normamps=152.0
new line.53117947 phases=3 bus1=82283135002409.1.2.3 bus2=82283125002409.1.2.3 r1=0.195 x1=0.4 length=0.045404 units=km normamps=419.0
new line.53117948 phases=3 bus1=82283125002409.1.2.3 bus2=82283115002409.1.2.3 r1=0.195 x1=0.4 length=0.028276 units=km normamps=419.0
new line.53117949 phases=3 bus1=82283115002409.1.2.3 bus2=82283105002409.1.2.3 r1=0.195 x1=0.4 length=0.032628 units=km normamps=419.0
new line.53117950 phases=3 bus1=82283105002409.1.2.3 bus2=82283095002409.1.2.3 r1=0.195 x1=0.4 length=0.039004 units=km normamps=419.0
new line.53117951 phases=3 bus1=82283095002409.1.2.3 bus2=82283085002409.1.2.3 r1=0.195 x1=0.4 length=0.040517 units=km normamps=419.0
new line.53117952 phases=3 bus1=82283085002409.1.2.3 bus2=82283075002409.1.2.3 r1=0.195 x1=0.4 length=0.052073 units=km normamps=419.0
new line.53117953 phases=3 bus1=82283075002409.1.2.3 bus2=82283065002409.1.2.3 r1=0.195 x1=0.4 length=0.046298 units=km normamps=419.0
new line.53117954 phases=3 bus1=82283065002409.1.2.3 bus2=82283055002409.1.2.3 r1=0.195 x1=0.4 length=0.03982 units=km normamps=419.0
new line.53117955 phases=3 bus1=82283055002409.1.2.3 bus2=82283045002409.1.2.3 r1=0.195 x1=0.4 length=0.026755 units=km normamps=419.0
new line.53117956 phases=3 bus1=82364035002409.1.2.3 bus2=82365855002409.1.2.3 r1=0.975 x1=0.47 length=0.020388 units=km normamps=152.0
new line.53117957 phases=3 bus1=82365865002409.1.2.3 bus2=82365855002409.1.2.3 r1=0.975 x1=0.47 length=0.004712 units=km normamps=152.0
new line.53117958 phases=3 bus1=82362145002409.1.2.3 bus2=82362135002409.1.2.3 r1=1.551 x1=0.49 length=0.037628 units=km normamps=114.0
new line.53117959 phases=3 bus1=82362155002409.1.2.3 bus2=82362135002409.1.2.3 r1=1.551 x1=0.49 length=0.04098 units=km normamps=114.0
new line.53117960 phases=3 bus1=82362385002409.1.2.3 bus2=82362155002409.1.2.3 r1=1.551 x1=0.49 length=0.037607 units=km normamps=114.0
new line.53117964 phases=3 bus1=82362495002409.1.2.3 bus2=82362145002409.1.2.3 r1=1.551 x1=0.49 length=0.020245 units=km normamps=114.0
new line.53117965 phases=3 bus1=82362505002409.1.2.3 bus2=82362495002409.1.2.3 r1=1.551 x1=0.49 length=0.04193 units=km normamps=114.0
new line.53117966 phases=3 bus1=82362595002409.1.2.3 bus2=82362585002409.1.2.3 r1=0.195 x1=0.4 length=0.040491 units=km normamps=419.0
new line.53117967 phases=3 bus1=82362605002409.1.2.3 bus2=82362595002409.1.2.3 r1=0.195 x1=0.4 length=0.02603 units=km normamps=419.0
new line.53117968 phases=3 bus1=82362615002409.1.2.3 bus2=82362605002409.1.2.3 r1=0.195 x1=0.4 length=0.036883 units=km normamps=419.0
new line.53117969 phases=3 bus1=82362625002409.1.2.3 bus2=82362615002409.1.2.3 r1=0.195 x1=0.4 length=0.042659 units=km normamps=419.0
new line.53117970 phases=3 bus1=82362635002409.1.2.3 bus2=82362625002409.1.2.3 r1=0.195 x1=0.4 length=0.04193 units=km normamps=419.0
new line.53117971 phases=3 bus1=82362735002409B.1.2.3 bus2=82362505002409.1.2.3 r1=1.551 x1=0.49 length=0.032253 units=km normamps=114.0
new line.53117972 phases=3 bus1=82357185002409.1.2.3 bus2=82364225002409.1.2.3 r1=0.975 x1=0.47 length=0.015781 units=km normamps=152.0
new line.53117973 phases=3 bus1=82364225002409.1.2.3 bus2=82357195002409.1.2.3 r1=0.975 x1=0.47 length=0.016329 units=km normamps=152.0
new line.53117974 phases=3 bus1=82357195002409.1.2.3 bus2=82357205002409.1.2.3 r1=0.975 x1=0.47 length=0.003486 units=km normamps=152.0
new line.53117975 phases=3 bus1=82357205002409.1.2.3 bus2=82364235002409.1.2.3 r1=1.551 x1=0.49 length=0.030393 units=km normamps=114.0
new line.53117976 phases=3 bus1=82364235002409.1.2.3 bus2=82364415002409.1.2.3 r1=1.551 x1=0.49 length=0.030568 units=km normamps=114.0
new line.53117977 phases=3 bus1=82365895002409.1.2.3 bus2=82365885002409.1.2.3 r1=0.975 x1=0.47 length=0.040491 units=km normamps=152.0
new line.53117978 phases=3 bus1=82365885002409.1.2.3 bus2=82320735002409.1.2.3 r1=0.975 x1=0.47 length=0.032538 units=km normamps=152.0
new line.53117979 phases=3 bus1=82365905002409.1.2.3 bus2=82365895002409.1.2.3 r1=0.975 x1=0.47 length=0.039072 units=km normamps=152.0
new line.53117980 phases=3 bus1=82365915002409.1.2.3 bus2=82365905002409.1.2.3 r1=0.975 x1=0.47 length=0.042275 units=km normamps=152.0
...

! 3. Chaves Seccionadoras MT
new line.SC_5289109 phases=3 bus1=82285775002409.1.2.3 bus2=82285775002409B.1.2.3 switch=y r1=1e-4 x1=1e-4 length=0.001 units=km
new line.SC_5289601 phases=3 bus1=80434955002409.1.2.3 bus2=80434955002409B.1.2.3 switch=y r1=1e-4 x1=1e-4 length=0.001 units=km
new line.SC_5289602 phases=3 bus1=82358075002409.1.2.3 bus2=82358075002409B.1.2.3 switch=y r1=1e-4 x1=1e-4 length=0.001 units=km
new line.SC_5289604 phases=3 bus1=82360995002409.1.2.3 bus2=82360995002409B.1.2.3 switch=y r1=1e-4 x1=1e-4 length=0.001 units=km
new line.SC_5289605 phases=3 bus1=82283035002409.1.2.3 bus2=82283035002409B.1.2.3 switch=y r1=1e-4 x1=1e-4 length=0.001 units=km
new line.SC_5289606 phases=3 bus1=82358565002409.1.2.3 bus2=82358565002409B.1.2.3 switch=y r1=1e-4 x1=1e-4 length=0.001 units=km
new line.SC_5289607 phases=3 bus1=82363595002409.1.2.3 bus2=82363595002409B.1.2.3 switch=y r1=1e-4 x1=1e-4 length=0.001 units=km
new line.SC_5289608 phases=3 bus1=80439885002409.1.2.3 bus2=80439885002409B.1.2.3 switch=y r1=1e-4 x1=1e-4 length=0.001 units=km
new line.SC_5289628 phases=3 bus1=82357265002409.1.2.3 bus2=82357265002409B.1.2.3 switch=y r1=1e-4 x1=1e-4 length=0.001 units=km
new line.SC_5289629 phases=3 bus1=82357315002409.1.2.3 bus2=82357315002409B.1.2.3 switch=y r1=1e-4 x1=1e-4 length=0.001 units=km
new line.SC_5289630 phases=3 bus1=80434565002409.1.2.3 bus2=80434565002409B.1.2.3 switch=y r1=1e-4 x1=1e-4 length=0.001 units=km
new line.SC_5289631 phases=3 bus1=82358085002409.1.2.3 bus2=82358085002409B.1.2.3 switch=y r1=1e-4 x1=1e-4 length=0.001 units=km
new line.SC_5289633 phases=3 bus1=82361035002409.1.2.3 bus2=82361035002409B.1.2.3 switch=y r1=1e-4 x1=1e-4 length=0.001 units=km
new line.SC_5289635 phases=3 bus1=82359875002409.1.2.3 bus2=82359875002409B.1.2.3 switch=y r1=1e-4 x1=1e-4 length=0.001 units=km
new line.SC_5289637 phases=3 bus1=82365345002409.1.2.3 bus2=82365345002409B.1.2.3 switch=y r1=1e-4 x1=1e-4 length=0.001 units=km
new line.SC_5289638 phases=3 bus1=82283115002409.1.2.3 bus2=82283115002409B.1.2.3 switch=y r1=1e-4 x1=1e-4 length=0.001 units=km
new line.SC_5289639 phases=3 bus1=82364625002409.1.2.3 bus2=82364625002409B.1.2.3 switch=y r1=1e-4 x1=1e-4 length=0.001 units=km
new line.SC_5289641 phases=3 bus1=82362755002409.1.2.3 bus2=82362755002409B.1.2.3 switch=y r1=1e-4 x1=1e-4 length=0.001 units=km
new line.SC_5289642 phases=3 bus1=82362735002409.1.2.3 bus2=82362735002409B.1.2.3 switch=y r1=1e-4 x1=1e-4 length=0.001 units=km
new line.SC_5289643 phases=3 bus1=82363215002409.1.2.3 bus2=82363215002409B.1.2.3 switch=y r1=1e-4 x1=1e-4 length=0.001 units=km
new line.SC_5289645 phases=3 bus1=82366555002409.1.2.3 bus2=82366555002409B.1.2.3 switch=y r1=1e-4 x1=1e-4 length=0.001 units=km
new line.SC_5289646 phases=3 bus1=82363275002409.1.2.3 bus2=82363275002409B.1.2.3 switch=y r1=1e-4 x1=1e-4 length=0.001 units=km
new line.SC_5289647 phases=3 bus1=82363315002409.1.2.3 bus2=82363315002409B.1.2.3 switch=y r1=1e-4 x1=1e-4 length=0.001 units=km
new line.SC_5289648 phases=3 bus1=82363515002409.1.2.3 bus2=82363515002409B.1.2.3 switch=y r1=1e-4 x1=1e-4 length=0.001 units=km
new line.SC_5289649 phases=3 bus1=82363735002409.1.2.3 bus2=82363735002409B.1.2.3 switch=y r1=1e-4 x1=1e-4 length=0.001 units=km
new line.SC_5289650 phases=3 bus1=82364105002409.1.2.3 bus2=82364105002409B.1.2.3 switch=y r1=1e-4 x1=1e-4 length=0.001 units=km
new line.SC_5289654 phases=3 bus1=82375655002409.1.2.3 bus2=82375655002409B.1.2.3 switch=y r1=1e-4 x1=1e-4 length=0.001 units=km
new line.SC_5289658 phases=3 bus1=82367355002409.1.2.3 bus2=82367355002409B.1.2.3 switch=y r1=1e-4 x1=1e-4 length=0.001 units=km
new line.SC_5289675 phases=3 bus1=82373605002409.1.2.3 bus2=82373605002409B.1.2.3 switch=y r1=1e-4 x1=1e-4 length=0.001 units=km
new line.SC_5289676 phases=3 bus1=82371265002409.1.2.3 bus2=82371265002409B.1.2.3 switch=y r1=1e-4 x1=1e-4 length=0.001 units=km
new line.SC_5289679 phases=3 bus1=82371845002409.1.2.3 bus2=82371845002409B.1.2.3 switch=y r1=1e-4 x1=1e-4 length=0.001 units=km
new line.SC_5289680 phases=3 bus1=82378555002409.1.2.3 bus2=82378555002409B.1.2.3 switch=y r1=1e-4 x1=1e-4 length=0.001 units=km
new line.SC_5289685 phases=3 bus1=82376775002409.1.2.3 bus2=82376775002409B.1.2.3 switch=y r1=1e-4 x1=1e-4 length=0.001 units=km
new line.SC_5289686 phases=3 bus1=82376765002409.1.2.3 bus2=82376765002409B.1.2.3 switch=y r1=1e-4 x1=1e-4 length=0.001 units=km
new line.SC_5297572 phases=3 bus1=82283125002409.1.2.3 bus2=82283125002409B.1.2.3 switch=y r1=1e-4 x1=1e-4 length=0.001 units=km
new line.SC_5298344 phases=3 bus1=83068745002409.1.2.3 bus2=83068745002409B.1.2.3 switch=y r1=1e-4 x1=1e-4 length=0.001 units=km
new line.SC_5310877 phases=3 bus1=83083925002409.1.2.3 bus2=83083925002409B.1.2.3 switch=y r1=1e-4 x1=1e-4 length=0.001 units=km
new line.SC_5547517 phases=3 bus1=90017025002409.1.2.3 bus2=90017025002409B.1.2.3 switch=y r1=1e-4 x1=1e-4 length=0.001 units=km
new line.SC_5547518 phases=3 bus1=93275205002409.1.2.3 bus2=93275205002409B.1.2.3 switch=y r1=1e-4 x1=1e-4 length=0.001 units=km
new line.SC_5547520 phases=3 bus1=90017035002409.1.2.3 bus2=90017035002409B.1.2.3 switch=y r1=1e-4 x1=1e-4 length=0.001 units=km
new line.SC_5547521 phases=3 bus1=90017045002409.1.2.3 bus2=90017045002409B.1.2.3 switch=y r1=1e-4 x1=1e-4 length=0.001 units=km
open line.SC_5547521 1
new line.SC_5547570 phases=3 bus1=90018055002409.1.2.3 bus2=90018055002409B.1.2.3 switch=y r1=1e-4 x1=1e-4 length=0.001 units=km
new line.SC_5613895 phases=3 bus1=82383465002409.1.2.3 bus2=82383465002409B.1.2.3 switch=y r1=1e-4 x1=1e-4 length=0.001 units=km
new line.SC_5653657 phases=3 bus1=93338645002409.1.2.3 bus2=93338645002409B.1.2.3 switch=y r1=1e-4 x1=1e-4 length=0.001 units=km
open line.SC_5653657 1
new line.SC_5677764 phases=3 bus1=94063995002409.1.2.3 bus2=94063995002409B.1.2.3 switch=y r1=1e-4 x1=1e-4 length=0.001 units=km
open line.SC_5677764 1
new line.SC_5677785 phases=3 bus1=94064385002409.1.2.3 bus2=94064385002409B.1.2.3 switch=y r1=1e-4 x1=1e-4 length=0.001 units=km
new line.SC_5685199 phases=3 bus1=94243425002409.1.2.3 bus2=94243425002409B.1.2.3 switch=y r1=1e-4 x1=1e-4 length=0.001 units=km
open line.SC_5685199 1
new line.SC_5685205 phases=3 bus1=94243545002409.1.2.3 bus2=94243545002409B.1.2.3 switch=y r1=1e-4 x1=1e-4 length=0.001 units=km
open line.SC_5685205 1
new line.SC_5686072 phases=3 bus1=94263615002409.1.2.3 bus2=94263615002409B.1.2.3 switch=y r1=1e-4 x1=1e-4 length=0.001 units=km
open line.SC_5686072 1
new line.SC_5688237 phases=3 bus1=94312995002409.1.2.3 bus2=94312995002409B.1.2.3 switch=y r1=1e-4 x1=1e-4 length=0.001 units=km
open line.SC_5688237 1
new line.SC_5693253 phases=3 bus1=94424545002409.1.2.3 bus2=94424545002409B.1.2.3 switch=y r1=1e-4 x1=1e-4 length=0.001 units=km
new line.SC_5693254 phases=3 bus1=94424595002409.1.2.3 bus2=94424595002409B.1.2.3 switch=y r1=1e-4 x1=1e-4 length=0.001 units=km
open line.SC_5693254 1
new line.SC_5695950 phases=3 bus1=94458585002409.1.2.3 bus2=94458585002409B.1.2.3 switch=y r1=1e-4 x1=1e-4 length=0.001 units=km
new line.SC_5695951 phases=3 bus1=94458605002409.1.2.3 bus2=94458605002409B.1.2.3 switch=y r1=1e-4 x1=1e-4 length=0.001 units=km
open line.SC_5695951 1
new line.SC_5702346 phases=3 bus1=82285765002409.1.2.3 bus2=82285765002409B.1.2.3 switch=y r1=1e-4 x1=1e-4 length=0.001 units=km
open line.SC_5702346 1
new line.SC_5702384 phases=3 bus1=94263585002409.1.2.3 bus2=94263585002409B.1.2.3 switch=y r1=1e-4 x1=1e-4 length=0.001 units=km
new line.SC_5702599 phases=3 bus1=94243395002409.1.2.3 bus2=94243395002409B.1.2.3 switch=y r1=1e-4 x1=1e-4 length=0.001 units=km
new line.SC_5702600 phases=3 bus1=94243515002409.1.2.3 bus2=94243515002409B.1.2.3 switch=y r1=1e-4 x1=1e-4 length=0.001 units=km
new line.SC_5702602 phases=3 bus1=94312965002409.1.2.3 bus2=94312965002409B.1.2.3 switch=y r1=1e-4 x1=1e-4 length=0.001 units=km
new line.SC_5703481 phases=3 bus1=82311775002409.1.2.3 bus2=82311775002409B.1.2.3 switch=y r1=1e-4 x1=1e-4 length=0.001 units=km
open line.SC_5703481 1
new line.SC_5713295 phases=3 bus1=82370385002409.1.2.3 bus2=82370385002409B.1.2.3 switch=y r1=1e-4 x1=1e-4 length=0.001 units=km
new line.SC_5720917 phases=3 bus1=82361515002409.1.2.3 bus2=82361515002409B.1.2.3 switch=y r1=1e-4 x1=1e-4 length=0.001 units=km
new line.SC_5733494 phases=3 bus1=95761225002409.1.2.3 bus2=95761225002409B.1.2.3 switch=y r1=1e-4 x1=1e-4 length=0.001 units=km
open line.SC_5733494 1
new line.SC_5733495 phases=3 bus1=95761175002409.1.2.3 bus2=95761175002409B.1.2.3 switch=y r1=1e-4 x1=1e-4 length=0.001 units=km
new line.SC_5734109 phases=3 bus1=95791065002409.1.2.3 bus2=95791065002409B.1.2.3 switch=y r1=1e-4 x1=1e-4 length=0.001 units=km
new line.SC_5734110 phases=3 bus1=95791085002409.1.2.3 bus2=95791085002409B.1.2.3 switch=y r1=1e-4 x1=1e-4 length=0.001 units=km
open line.SC_5734110 1
new line.SC_5734231 phases=3 bus1=95803775002409.1.2.3 bus2=95803775002409B.1.2.3 switch=y r1=1e-4 x1=1e-4 length=0.001 units=km
open line.SC_5734231 1
new line.SC_5734232 phases=3 bus1=95803765002409.1.2.3 bus2=95803765002409B.1.2.3 switch=y r1=1e-4 x1=1e-4 length=0.001 units=km
new line.SC_5735585 phases=3 bus1=95858835002409.1.2.3 bus2=95858835002409B.1.2.3 switch=y r1=1e-4 x1=1e-4 length=0.001 units=km
open line.SC_5735585 1
new line.SC_5735586 phases=3 bus1=95858885002409.1.2.3 bus2=95858885002409B.1.2.3 switch=y r1=1e-4 x1=1e-4 length=0.001 units=km
open line.SC_5735586 1
new line.SC_5738852 phases=3 bus1=95987615002409.1.2.3 bus2=95987615002409B.1.2.3 switch=y r1=1e-4 x1=1e-4 length=0.001 units=km
open line.SC_5738852 1
new line.SC_5738853 phases=3 bus1=95987555002409.1.2.3 bus2=95987555002409B.1.2.3 switch=y r1=1e-4 x1=1e-4 length=0.001 units=km
new line.SC_5746401 phases=3 bus1=82370085002409.1.2.3 bus2=82370085002409B.1.2.3 switch=y r1=1e-4 x1=1e-4 length=0.001 units=km
new line.SC_5746402 phases=3 bus1=96398405002409.1.2.3 bus2=96398405002409B.1.2.3 switch=y r1=1e-4 x1=1e-4 length=0.001 units=km
open line.SC_5746402 1
new line.SC_5746403 phases=3 bus1=96398385002409.1.2.3 bus2=96398385002409B.1.2.3 switch=y r1=1e-4 x1=1e-4 length=0.001 units=km
open line.SC_5746403 1
new line.SC_5750064 phases=3 bus1=96580855002409.1.2.3 bus2=96580855002409B.1.2.3 switch=y r1=1e-4 x1=1e-4 length=0.001 units=km
open line.SC_5750064 1
new line.SC_5750065 phases=3 bus1=96580865002409.1.2.3 bus2=96580865002409B.1.2.3 switch=y r1=1e-4 x1=1e-4 length=0.001 units=km
open line.SC_5750065 1
new line.SC_5762245 phases=3 bus1=97152375002409.1.2.3 bus2=97152375002409B.1.2.3 switch=y r1=1e-4 x1=1e-4 length=0.001 units=km
open line.SC_5762245 1
new line.SC_5762246 phases=3 bus1=97152425002409.1.2.3 bus2=97152425002409B.1.2.3 switch=y r1=1e-4 x1=1e-4 length=0.001 units=km
open line.SC_5762246 1
new line.SC_5779340 phases=3 bus1=82361185002409.1.2.3 bus2=82361185002409B.1.2.3 switch=y r1=1e-4 x1=1e-4 length=0.001 units=km
new line.SC_5793665 phases=3 bus1=98026975002409.1.2.3 bus2=98026975002409B.1.2.3 switch=y r1=1e-4 x1=1e-4 length=0.001 units=km
new line.SC_5793666 phases=3 bus1=98027015002409.1.2.3 bus2=98027015002409B.1.2.3 switch=y r1=1e-4 x1=1e-4 length=0.001 units=km
open line.SC_5793666 1
new line.SC_DB0000566 phases=3 bus1=DB0000566.1.2.3 bus2=DB0000566B.1.2.3 switch=y r1=1e-4 x1=1e-4 length=0.001 units=km
new line.SC_SA0002782 phases=3 bus1=SA0002782.1.2.3 bus2=SA0002782B.1.2.3 switch=y r1=1e-4 x1=1e-4 length=0.001 units=km
new line.SC_GOLS013BANCAP523BC5 phases=3 bus1=I888888312765002409.1.2.3 bus2=I888888312765002409B.1.2.3 switch=y r1=1e-4 x1=1e-4 length=0.001 units=km
new line.SC_SA0002811 phases=3 bus1=SA0002811.1.2.3 bus2=SA0002811B.1.2.3 switch=y r1=1e-4 x1=1e-4 length=0.001 units=km
new line.SC_SA0002805 phases=3 bus1=SA0002805.1.2.3 bus2=SA0002805B.1.2.3 switch=y r1=1e-4 x1=1e-4 length=0.001 units=km
new line.SC_SA0002808 phases=3 bus1=SA0002808.1.2.3 bus2=SA0002808B.1.2.3 switch=y r1=1e-4 x1=1e-4 length=0.001 units=km
new line.SC_SA0002776 phases=3 bus1=SA0002776.1.2.3 bus2=SA0002776B.1.2.3 switch=y r1=1e-4 x1=1e-4 length=0.001 units=km
new line.SC_DA0000286 phases=3 bus1=I888888313755002409.1.2.3 bus2=I888888313755002409B.1.2.3 switch=y r1=1e-4 x1=1e-4 length=0.001 units=km
new line.SC_DA0000290 phases=3 bus1=I888888103065002409.1.2.3 bus2=I888888103065002409B.1.2.3 switch=y r1=1e-4 x1=1e-4 length=0.001 units=km
new line.SC_DA0000342 phases=3 bus1=I888888414495002409.1.2.3 bus2=I888888414495002409B.1.2.3 switch=y r1=1e-4 x1=1e-4 length=0.001 units=km
new line.SC_SA0002774 phases=3 bus1=I888888313395002409.1.2.3 bus2=I888888313395002409B.1.2.3 switch=y r1=1e-4 x1=1e-4 length=0.001 units=km
new line.SC_SA0002781 phases=3 bus1=I888888414485002409.1.2.3 bus2=I888888414485002409B.1.2.3 switch=y r1=1e-4 x1=1e-4 length=0.001 units=km
new line.SC_SA0002785 phases=3 bus1=I888888312765002409.1.2.3 bus2=I888888312765002409B.1.2.3 switch=y r1=1e-4 x1=1e-4 length=0.001 units=km
new line.SC_SA0002786 phases=3 bus1=I888888477645002409.1.2.3 bus2=I888888477645002409B.1.2.3 switch=y r1=1e-4 x1=1e-4 length=0.001 units=km
new line.SC_SA0002787 phases=3 bus1=I888888312855002409.1.2.3 bus2=I888888477510B.1.2.3 switch=y r1=1e-4 x1=1e-4 length=0.001 units=km

! 4. Bancos de Capacitores MT
new capacitor.BA0000128 phases=3 bus1=I888888414505002409.1.2.3 conn=wye kv=13.8 kvar=5400.0
new capacitor.5289600 phases=3 bus1=82361125002409.1.2.3 conn=wye kv=13.8 kvar=300.0

! 5. Transformadores MT/BT de Distribuicao
new transformer.UNTRMT_5289615 phases=3 windings=2 %r=1.55 xhl=3.14 kva=75.0
~ wdg=1 bus=82379225002409.1.2.3 conn=delta kv=13.8
~ wdg=2 bus=82379225289615.1.2.3.0 conn=wye kv=0.38

new transformer.UNTRMT_5289616 phases=3 windings=2 %r=1.78 xhl=3.01 kva=30.0
~ wdg=1 bus=82367875002409.1.2.3 conn=delta kv=13.8
~ wdg=2 bus=82367875289616.1.2.3.0 conn=wye kv=0.38

new transformer.UNTRMT_5289689 phases=3 windings=2 %r=1.46 xhl=3.18 kva=112.0
~ wdg=1 bus=82357255002409.1.2.3 conn=delta kv=13.8
~ wdg=2 bus=82357255289689.1.2.3.0 conn=wye kv=0.38

new transformer.UNTRMT_5289690 phases=3 windings=2 %r=1.46 xhl=3.18 kva=112.0
~ wdg=1 bus=82357385002409.1.2.3 conn=delta kv=13.8
~ wdg=2 bus=82357385289690.1.2.3.0 conn=wye kv=0.38

new transformer.UNTRMT_5289691 phases=3 windings=2 %r=1.46 xhl=3.18 kva=112.0
~ wdg=1 bus=82357465002409.1.2.3 conn=delta kv=13.8
~ wdg=2 bus=82357465289691.1.2.3.0 conn=wye kv=0.38

new transformer.UNTRMT_5289692 phases=3 windings=2 %r=1.55 xhl=3.14 kva=75.0
~ wdg=1 bus=82357955002409.1.2.3 conn=delta kv=13.8
~ wdg=2 bus=82357955289692.1.2.3.0 conn=wye kv=0.38

new transformer.UNTRMT_5289693 phases=3 windings=2 %r=1.55 xhl=3.14 kva=75.0
~ wdg=1 bus=82358025002409.1.2.3 conn=delta kv=13.8
~ wdg=2 bus=82358025289693.1.2.3.0 conn=wye kv=0.38

new transformer.UNTRMT_5289694 phases=3 windings=2 %r=1.78 xhl=3.01 kva=60.0
~ wdg=1 bus=82358255002409.1.2.3 conn=delta kv=13.8
~ wdg=2 bus=82358255289694.1.2.3.0 conn=wye kv=0.38

new transformer.UNTRMT_5289694_2 phases=3 windings=2 %r=1.78 xhl=3.01 kva=60.0
~ wdg=1 bus=82358255002409.1.2.3 conn=delta kv=13.8
~ wdg=2 bus=82358255289694_2.1.2.3.0 conn=wye kv=0.38

new transformer.UNTRMT_5289695 phases=3 windings=2 %r=1.68 xhl=3.07 kva=45.0
~ wdg=1 bus=82358285002409.1.2.3 conn=delta kv=13.8
~ wdg=2 bus=82358285289695.1.2.3.0 conn=wye kv=0.38

new transformer.UNTRMT_5289696 phases=3 windings=2 %r=1.46 xhl=3.18 kva=112.0
~ wdg=1 bus=82360315002409.1.2.3 conn=delta kv=13.8
~ wdg=2 bus=82360315289696.1.2.3.0 conn=wye kv=0.38

new transformer.UNTRMT_5289697 phases=3 windings=2 %r=1.46 xhl=3.18 kva=112.0
~ wdg=1 bus=82360355002409.1.2.3 conn=delta kv=13.8
~ wdg=2 bus=82360355289697.1.2.3.0 conn=wye kv=0.38

new transformer.UNTRMT_5289698 phases=3 windings=2 %r=1.68 xhl=3.07 kva=45.0
~ wdg=1 bus=82360415002409.1.2.3 conn=delta kv=13.8
~ wdg=2 bus=82360415289698.1.2.3.0 conn=wye kv=0.38

new transformer.UNTRMT_5289699 phases=3 windings=2 %r=1.68 xhl=3.07 kva=45.0
~ wdg=1 bus=82359275002409.1.2.3 conn=delta kv=13.8
~ wdg=2 bus=82359275289699.1.2.3.0 conn=wye kv=0.38

new transformer.UNTRMT_5289700 phases=3 windings=2 %r=1.55 xhl=3.14 kva=75.0
~ wdg=1 bus=82359415002409.1.2.3 conn=delta kv=13.8
~ wdg=2 bus=82359415289700.1.2.3.0 conn=wye kv=0.38

new transformer.UNTRMT_5289701 phases=3 windings=2 %r=1.78 xhl=3.01 kva=30.0
~ wdg=1 bus=82361055002409.1.2.3 conn=delta kv=13.8
~ wdg=2 bus=82361055289701.1.2.3.0 conn=wye kv=0.38

new transformer.UNTRMT_5289702 phases=3 windings=2 %r=1.68 xhl=3.07 kva=45.0
~ wdg=1 bus=82360465002409.1.2.3 conn=delta kv=13.8
~ wdg=2 bus=82360465289702.1.2.3.0 conn=wye kv=0.38

new transformer.UNTRMT_5289703 phases=3 windings=2 %r=1.68 xhl=3.07 kva=45.0
~ wdg=1 bus=82359515002409.1.2.3 conn=delta kv=13.8
~ wdg=2 bus=82359515289703.1.2.3.0 conn=wye kv=0.38

new transformer.UNTRMT_5289704 phases=3 windings=2 %r=1.55 xhl=3.14 kva=75.0
~ wdg=1 bus=82359605002409.1.2.3 conn=delta kv=13.8
~ wdg=2 bus=82359605289704.1.2.3.0 conn=wye kv=0.38

new transformer.UNTRMT_5289705 phases=3 windings=2 %r=1.46 xhl=3.18 kva=112.0
~ wdg=1 bus=82359865002409.1.2.3 conn=delta kv=13.8
~ wdg=2 bus=82359865289705.1.2.3.0 conn=wye kv=0.38

new transformer.UNTRMT_5289706 phases=3 windings=2 %r=1.46 xhl=3.18 kva=112.0
~ wdg=1 bus=82360055002409.1.2.3 conn=delta kv=13.8
~ wdg=2 bus=82360055289706.1.2.3.0 conn=wye kv=0.38

new transformer.UNTRMT_5289707 phases=3 windings=2 %r=1.68 xhl=3.07 kva=45.0
~ wdg=1 bus=82358785002409.1.2.3 conn=delta kv=13.8
~ wdg=2 bus=82358785289707.1.2.3.0 conn=wye kv=0.38

new transformer.UNTRMT_5289708 phases=3 windings=2 %r=1.55 xhl=3.14 kva=75.0
~ wdg=1 bus=82364415002409.1.2.3 conn=delta kv=13.8
~ wdg=2 bus=82364415289708.1.2.3.0 conn=wye kv=0.38

new transformer.UNTRMT_5289709 phases=3 windings=2 %r=1.46 xhl=3.18 kva=112.0
~ wdg=1 bus=82360755002409.1.2.3 conn=delta kv=13.8
~ wdg=2 bus=82360755289709.1.2.3.0 conn=wye kv=0.38

new transformer.UNTRMT_5289710 phases=3 windings=2 %r=1.55 xhl=3.14 kva=75.0
~ wdg=1 bus=82364515002409.1.2.3 conn=delta kv=13.8
~ wdg=2 bus=82364515289710.1.2.3.0 conn=wye kv=0.38

new transformer.UNTRMT_5289711 phases=3 windings=2 %r=1.68 xhl=3.07 kva=45.0
~ wdg=1 bus=82364645002409.1.2.3 conn=delta kv=13.8
~ wdg=2 bus=82364645289711.1.2.3.0 conn=wye kv=0.38

new transformer.UNTRMT_5289712 phases=3 windings=2 %r=1.55 xhl=3.14 kva=75.0
~ wdg=1 bus=82362775002409.1.2.3 conn=delta kv=13.8
~ wdg=2 bus=82362775289712.1.2.3.0 conn=wye kv=0.38

new transformer.UNTRMT_5289713 phases=3 windings=2 %r=1.55 xhl=3.14 kva=75.0
~ wdg=1 bus=82361225002409.1.2.3 conn=delta kv=13.8
~ wdg=2 bus=82361225289713.1.2.3.0 conn=wye kv=0.38

new transformer.UNTRMT_5289714 phases=3 windings=2 %r=1.68 xhl=3.07 kva=45.0
~ wdg=1 bus=82361235002409.1.2.3 conn=delta kv=13.8
~ wdg=2 bus=82361235289714.1.2.3.0 conn=wye kv=0.38

new transformer.UNTRMT_5289715 phases=3 windings=2 %r=1.55 xhl=3.14 kva=75.0
~ wdg=1 bus=82365045002409.1.2.3 conn=delta kv=13.8
~ wdg=2 bus=82365045289715.1.2.3.0 conn=wye kv=0.38

new transformer.UNTRMT_5289716 phases=3 windings=2 %r=1.55 xhl=3.14 kva=75.0
~ wdg=1 bus=82365115002409.1.2.3 conn=delta kv=13.8
~ wdg=2 bus=82365115289716.1.2.3.0 conn=wye kv=0.38

new transformer.UNTRMT_5289717 phases=3 windings=2 %r=1.68 xhl=3.07 kva=45.0
~ wdg=1 bus=82364035002409.1.2.3 conn=delta kv=13.8
~ wdg=2 bus=82364035289717.1.2.3.0 conn=wye kv=0.38

new transformer.UNTRMT_5289718 phases=3 windings=2 %r=1.78 xhl=3.01 kva=30.0
~ wdg=1 bus=82365865002409.1.2.3 conn=delta kv=13.8
~ wdg=2 bus=82365865289718.1.2.3.0 conn=wye kv=0.38

new transformer.UNTRMT_5289719 phases=3 windings=2 %r=1.55 xhl=3.14 kva=75.0
~ wdg=1 bus=82362145002409.1.2.3 conn=delta kv=13.8
~ wdg=2 bus=82362145289719.1.2.3.0 conn=wye kv=0.38

new transformer.UNTRMT_5289720 phases=3 windings=2 %r=1.46 xhl=3.18 kva=112.0
~ wdg=1 bus=82362385002409.1.2.3 conn=delta kv=13.8
~ wdg=2 bus=82362385289720.1.2.3.0 conn=wye kv=0.38

new transformer.UNTRMT_5289721 phases=3 windings=2 %r=1.46 xhl=3.18 kva=112.0
~ wdg=1 bus=82363225002409.1.2.3 conn=delta kv=13.8
~ wdg=2 bus=82363225289721.1.2.3.0 conn=wye kv=0.38

new transformer.UNTRMT_5289722 phases=3 windings=2 %r=1.78 xhl=3.01 kva=30.0
~ wdg=1 bus=82364045002409.1.2.3 conn=delta kv=13.8
~ wdg=2 bus=82364045289722.1.2.3.0 conn=wye kv=0.38

new transformer.UNTRMT_5289723 phases=3 windings=2 %r=1.78 xhl=3.01 kva=30.0
~ wdg=1 bus=82364115002409.1.2.3 conn=delta kv=13.8
~ wdg=2 bus=82364115289723.1.2.3.0 conn=wye kv=0.38

new transformer.UNTRMT_5289724 phases=3 windings=2 %r=1.55 xhl=3.14 kva=75.0
~ wdg=1 bus=82366735002409.1.2.3 conn=delta kv=13.8
~ wdg=2 bus=82366735289724.1.2.3.0 conn=wye kv=0.38

new transformer.UNTRMT_5289725 phases=3 windings=2 %r=1.46 xhl=3.18 kva=112.0
~ wdg=1 bus=82365575002409.1.2.3 conn=delta kv=13.8
~ wdg=2 bus=82365575289725.1.2.3.0 conn=wye kv=0.38

new transformer.UNTRMT_5289726 phases=3 windings=2 %r=1.46 xhl=3.18 kva=112.0
~ wdg=1 bus=82363505002409.1.2.3 conn=delta kv=13.8
~ wdg=2 bus=82363505289726.1.2.3.0 conn=wye kv=0.38

new transformer.UNTRMT_5289727 phases=3 windings=2 %r=1.55 xhl=3.14 kva=75.0
~ wdg=1 bus=82363625002409.1.2.3 conn=delta kv=13.8
~ wdg=2 bus=82363625289727.1.2.3.0 conn=wye kv=0.38

new transformer.UNTRMT_5289728 phases=3 windings=2 %r=1.46 xhl=3.18 kva=112.0
~ wdg=1 bus=82362285002409.1.2.3 conn=delta kv=13.8
~ wdg=2 bus=82362285289728.1.2.3.0 conn=wye kv=0.38

new transformer.UNTRMT_5289729 phases=3 windings=2 %r=1.46 xhl=3.18 kva=112.0
~ wdg=1 bus=82363855002409.1.2.3 conn=delta kv=13.8
~ wdg=2 bus=82363855289729.1.2.3.0 conn=wye kv=0.38

new transformer.UNTRMT_5289730 phases=3 windings=2 %r=1.55 xhl=3.14 kva=75.0
~ wdg=1 bus=82365695002409.1.2.3 conn=delta kv=13.8
~ wdg=2 bus=82365695289730.1.2.3.0 conn=wye kv=0.38

new transformer.UNTRMT_5289731 phases=3 windings=2 %r=1.55 xhl=3.14 kva=75.0
~ wdg=1 bus=82365935002409.1.2.3 conn=delta kv=13.8
~ wdg=2 bus=82365935289731.1.2.3.0 conn=wye kv=0.38

new transformer.UNTRMT_5289732 phases=3 windings=2 %r=1.68 xhl=3.07 kva=45.0
~ wdg=1 bus=82366085002409.1.2.3 conn=delta kv=13.8
~ wdg=2 bus=82366085289732.1.2.3.0 conn=wye kv=0.38

new transformer.UNTRMT_5289733 phases=3 windings=2 %r=1.46 xhl=3.18 kva=112.0
~ wdg=1 bus=82366255002409.1.2.3 conn=delta kv=13.8
~ wdg=2 bus=82366255289733.1.2.3.0 conn=wye kv=0.38

new transformer.UNTRMT_5289734 phases=3 windings=2 %r=1.68 xhl=3.07 kva=45.0
~ wdg=1 bus=82366365002409.1.2.3 conn=delta kv=13.8
~ wdg=2 bus=82366365289734.1.2.3.0 conn=wye kv=0.38

new transformer.UNTRMT_5289735 phases=3 windings=2 %r=1.68 xhl=3.07 kva=45.0
~ wdg=1 bus=82366485002409.1.2.3 conn=delta kv=13.8
~ wdg=2 bus=82366485289735.1.2.3.0 conn=wye kv=0.38

new transformer.UNTRMT_5289737 phases=3 windings=2 %r=1.46 xhl=3.18 kva=112.0
~ wdg=1 bus=82383325002409.1.2.3 conn=delta kv=13.8
~ wdg=2 bus=82383325289737.1.2.3.0 conn=wye kv=0.38

new transformer.UNTRMT_5289738 phases=3 windings=2 %r=1.55 xhl=3.14 kva=75.0
~ wdg=1 bus=82381515002409.1.2.3 conn=delta kv=13.8
~ wdg=2 bus=82381515289738.1.2.3.0 conn=wye kv=0.38

new transformer.UNTRMT_5289739 phases=3 windings=2 %r=1.55 xhl=3.14 kva=75.0
~ wdg=1 bus=82375705002409.1.2.3 conn=delta kv=13.8
~ wdg=2 bus=82375705289739.1.2.3.0 conn=wye kv=0.38

new transformer.UNTRMT_5289740 phases=3 windings=2 %r=1.46 xhl=3.18 kva=112.0
~ wdg=1 bus=82376015002409.1.2.3 conn=delta kv=13.8
~ wdg=2 bus=82376015289740.1.2.3.0 conn=wye kv=0.38

new transformer.UNTRMT_5289741 phases=3 windings=2 %r=1.46 xhl=3.18 kva=112.0
~ wdg=1 bus=82381265002409.1.2.3 conn=delta kv=13.8
~ wdg=2 bus=82381265289741.1.2.3.0 conn=wye kv=0.38

new transformer.UNTRMT_5289742 phases=1 windings=3 %r=2.08 xhl=1.39 xht=1.39 xlt=0.97 kva=10.0
~ wdg=1 bus=82361475002409.1 conn=wye kv=7.96 kva=10.0 %r=1.04
~ wdg=2 bus=82361475289742.1.0 conn=wye kv=0.22 kva=10.0 %r=1.04
~ wdg=3 bus=82361475289742.0.2 conn=wye kv=0.22 kva=10.0 %r=1.04

new transformer.UNTRMT_5289743 phases=3 windings=2 %r=1.55 xhl=3.14 kva=75.0
~ wdg=1 bus=82361505002409.1.2.3 conn=delta kv=13.8
~ wdg=2 bus=82361505289743.1.2.3.0 conn=wye kv=0.38

new transformer.UNTRMT_5289744 phases=3 windings=2 %r=1.55 xhl=3.14 kva=75.0
~ wdg=1 bus=82367035002409.1.2.3 conn=delta kv=13.8
~ wdg=2 bus=82367035289744.1.2.3.0 conn=wye kv=0.38

new transformer.UNTRMT_5289745 phases=3 windings=2 %r=1.55 xhl=3.14 kva=75.0
~ wdg=1 bus=82367575002409.1.2.3 conn=delta kv=13.8
~ wdg=2 bus=82367575289745.1.2.3.0 conn=wye kv=0.38

new transformer.UNTRMT_5289746 phases=3 windings=2 %r=1.68 xhl=3.07 kva=45.0
~ wdg=1 bus=82361595002409.1.2.3 conn=delta kv=13.8
~ wdg=2 bus=82361595289746.1.2.3.0 conn=wye kv=0.38

new transformer.UNTRMT_5289747 phases=3 windings=2 %r=1.46 xhl=3.18 kva=112.0
~ wdg=1 bus=82372415002409.1.2.3 conn=delta kv=13.8
~ wdg=2 bus=82372415289747.1.2.3.0 conn=wye kv=0.38

new transformer.UNTRMT_5289748 phases=3 windings=2 %r=1.68 xhl=3.07 kva=45.0
~ wdg=1 bus=82372645002409.1.2.3 conn=delta kv=13.8
~ wdg=2 bus=82372645289748.1.2.3.0 conn=wye kv=0.38

new transformer.UNTRMT_5289750 phases=3 windings=2 %r=1.55 xhl=3.14 kva=75.0
~ wdg=1 bus=82372715002409.1.2.3 conn=delta kv=13.8
~ wdg=2 bus=82372715289750.1.2.3.0 conn=wye kv=0.38

new transformer.UNTRMT_5289751 phases=3 windings=2 %r=1.46 xhl=3.18 kva=112.0
~ wdg=1 bus=82372725002409.1.2.3 conn=delta kv=13.8
~ wdg=2 bus=82372725289751.1.2.3.0 conn=wye kv=0.38

new transformer.UNTRMT_5289752 phases=3 windings=2 %r=1.55 xhl=3.14 kva=75.0
~ wdg=1 bus=82373305002409.1.2.3 conn=delta kv=13.8
~ wdg=2 bus=82373305289752.1.2.3.0 conn=wye kv=0.38

new transformer.UNTRMT_5289753 phases=3 windings=2 %r=1.46 xhl=3.18 kva=112.0
~ wdg=1 bus=82376685002409.1.2.3 conn=delta kv=13.8
~ wdg=2 bus=82376685289753.1.2.3.0 conn=wye kv=0.38

new transformer.UNTRMT_5289754 phases=3 windings=2 %r=1.46 xhl=3.18 kva=112.0
~ wdg=1 bus=82368355002409.1.2.3 conn=delta kv=13.8
~ wdg=2 bus=82368355289754.1.2.3.0 conn=wye kv=0.38

new transformer.UNTRMT_5289755 phases=3 windings=2 %r=1.46 xhl=3.18 kva=112.0
~ wdg=1 bus=82368535002409.1.2.3 conn=delta kv=13.8
~ wdg=2 bus=82368535289755.1.2.3.0 conn=wye kv=0.38

new transformer.UNTRMT_5289756 phases=3 windings=2 %r=1.46 xhl=3.18 kva=112.0
~ wdg=1 bus=82369885002409.1.2.3 conn=delta kv=13.8
~ wdg=2 bus=82369885289756.1.2.3.0 conn=wye kv=0.38

new transformer.UNTRMT_5289757 phases=3 windings=2 %r=1.46 xhl=3.18 kva=112.0
~ wdg=1 bus=82370075002409.1.2.3 conn=delta kv=13.8
~ wdg=2 bus=82370075289757.1.2.3.0 conn=wye kv=0.38

new transformer.UNTRMT_5289758 phases=3 windings=2 %r=1.68 xhl=3.07 kva=45.0
~ wdg=1 bus=82370325002409.1.2.3 conn=delta kv=13.8
~ wdg=2 bus=82370325289758.1.2.3.0 conn=wye kv=0.38

new transformer.UNTRMT_5289759 phases=3 windings=2 %r=1.55 xhl=3.14 kva=75.0
~ wdg=1 bus=82370415002409.1.2.3 conn=delta kv=13.8
~ wdg=2 bus=82370415289759.1.2.3.0 conn=wye kv=0.38

new transformer.UNTRMT_5289760 phases=3 windings=2 %r=1.68 xhl=3.07 kva=45.0
~ wdg=1 bus=82374505002409.1.2.3 conn=delta kv=13.8
~ wdg=2 bus=82374505289760.1.2.3.0 conn=wye kv=0.38

new transformer.UNTRMT_5289761 phases=3 windings=2 %r=1.78 xhl=3.01 kva=30.0
~ wdg=1 bus=82374515002409.1.2.3 conn=delta kv=13.8
~ wdg=2 bus=82374515289761.1.2.3.0 conn=wye kv=0.38

new transformer.UNTRMT_5289762 phases=3 windings=2 %r=1.46 xhl=3.18 kva=112.0
~ wdg=1 bus=82374975002409.1.2.3 conn=delta kv=13.8
~ wdg=2 bus=82374975289762-340.1.2.3.0 conn=wye kv=0.38

new transformer.UNTRMT_5289763 phases=3 windings=2 %r=1.55 xhl=3.14 kva=75.0
~ wdg=1 bus=82383935002409.1.2.3 conn=delta kv=13.8
~ wdg=2 bus=82383935289763.1.2.3.0 conn=wye kv=0.38

new transformer.UNTRMT_5289764 phases=3 windings=2 %r=1.46 xhl=3.18 kva=112.0
~ wdg=1 bus=82371435002409.1.2.3 conn=delta kv=13.8
~ wdg=2 bus=82371435289764.1.2.3.0 conn=wye kv=0.38

new transformer.UNTRMT_5289765 phases=3 windings=2 %r=1.46 xhl=3.18 kva=112.0
~ wdg=1 bus=82378135002409.1.2.3 conn=delta kv=13.8
~ wdg=2 bus=82378135289765.1.2.3.0 conn=wye kv=0.38

new transformer.UNTRMT_5289766 phases=3 windings=2 %r=1.46 xhl=3.18 kva=112.0
~ wdg=1 bus=82377595002409.1.2.3 conn=delta kv=13.8
~ wdg=2 bus=82377595289766.1.2.3.0 conn=wye kv=0.38

new transformer.UNTRMT_5289767 phases=3 windings=2 %r=1.46 xhl=3.18 kva=112.0
~ wdg=1 bus=82383125002409.1.2.3 conn=delta kv=13.8
~ wdg=2 bus=82383125289767.1.2.3.0 conn=wye kv=0.38

new transformer.UNTRMT_5289768 phases=3 windings=2 %r=1.55 xhl=3.14 kva=75.0
~ wdg=1 bus=82377725002409.1.2.3 conn=delta kv=13.8
~ wdg=2 bus=82377725289768-341.1.2.3.0 conn=wye kv=0.38

new transformer.UNTRMT_5289769 phases=3 windings=2 %r=1.39 xhl=3.21 kva=45.0
~ wdg=1 bus=82373765002409.1.2.3 conn=delta kv=13.8
~ wdg=2 bus=82373765289769.1.2.3.0 conn=wye kv=0.38

new transformer.UNTRMT_5289770 phases=3 windings=2 %r=1.55 xhl=3.14 kva=75.0
~ wdg=1 bus=82373815002409.1.2.3 conn=delta kv=13.8
~ wdg=2 bus=82373815289770.1.2.3.0 conn=wye kv=0.38

new transformer.UNTRMT_5289771 phases=3 windings=2 %r=1.46 xhl=3.18 kva=112.0
~ wdg=1 bus=82368705002409.1.2.3 conn=delta kv=13.8
~ wdg=2 bus=82368705289771.1.2.3.0 conn=wye kv=0.38

new transformer.UNTRMT_5289772 phases=3 windings=2 %r=1.46 xhl=3.18 kva=112.0
~ wdg=1 bus=82369685002409.1.2.3 conn=delta kv=13.8
~ wdg=2 bus=82369685289772-342.1.2.3.0 conn=wye kv=0.38

new transformer.UNTRMT_5289773 phases=3 windings=2 %r=1.46 xhl=3.18 kva=112.0
~ wdg=1 bus=82374095002409.1.2.3 conn=delta kv=13.8
~ wdg=2 bus=82374095289773.1.2.3.0 conn=wye kv=0.38

new transformer.UNTRMT_5289774 phases=3 windings=2 %r=1.55 xhl=3.14 kva=75.0
~ wdg=1 bus=82379975002409.1.2.3 conn=delta kv=13.8
~ wdg=2 bus=82379975289774.1.2.3.0 conn=wye kv=0.38

new transformer.UNTRMT_5289775 phases=3 windings=2 %r=1.46 xhl=3.18 kva=112.0
~ wdg=1 bus=82380055002409.1.2.3 conn=delta kv=13.8
~ wdg=2 bus=82380055289775.1.2.3.0 conn=wye kv=0.38

new transformer.UNTRMT_5289776 phases=3 windings=2 %r=1.55 xhl=3.14 kva=75.0
~ wdg=1 bus=82382255002409.1.2.3 conn=delta kv=13.8
~ wdg=2 bus=82382255289776.1.2.3.0 conn=wye kv=0.38

new transformer.UNTRMT_5289777 phases=3 windings=2 %r=1.39 xhl=3.21 kva=150.0
~ wdg=1 bus=82371255002409.1.2.3 conn=delta kv=13.8
~ wdg=2 bus=82371255289777.1.2.3.0 conn=wye kv=0.38

new transformer.UNTRMT_5289778 phases=3 windings=2 %r=1.46 xhl=3.18 kva=112.0
~ wdg=1 bus=82371345002409.1.2.3 conn=delta kv=13.8
~ wdg=2 bus=82371345289778.1.2.3.0 conn=wye kv=0.38

new transformer.UNTRMT_5289779 phases=3 windings=2 %r=1.55 xhl=3.14 kva=75.0
~ wdg=1 bus=82369545002409.1.2.3 conn=delta kv=13.8
~ wdg=2 bus=82369545289779.1.2.3.0 conn=wye kv=0.38

new transformer.UNTRMT_5289780 phases=3 windings=2 %r=1.46 xhl=3.18 kva=112.0
~ wdg=1 bus=82381835002409.1.2.3 conn=delta kv=13.8
~ wdg=2 bus=82381835289780.1.2.3.0 conn=wye kv=0.38

new transformer.UNTRMT_5289781 phases=3 windings=2 %r=1.55 xhl=3.14 kva=75.0
~ wdg=1 bus=82381855002409.1.2.3 conn=delta kv=13.8
~ wdg=2 bus=82381855289781.1.2.3.0 conn=wye kv=0.38

new transformer.UNTRMT_5289782 phases=3 windings=2 %r=1.55 xhl=3.14 kva=75.0
~ wdg=1 bus=82371765002409.1.2.3 conn=delta kv=13.8
~ wdg=2 bus=82371765289782.1.2.3.0 conn=wye kv=0.38

new transformer.UNTRMT_5289783 phases=3 windings=2 %r=1.46 xhl=3.18 kva=112.0
~ wdg=1 bus=82379415002409.1.2.3 conn=delta kv=13.8
~ wdg=2 bus=82379415289783.1.2.3.0 conn=wye kv=0.38

new transformer.UNTRMT_5289784 phases=3 windings=2 %r=1.39 xhl=3.21 kva=150.0
~ wdg=1 bus=82381965002409.1.2.3 conn=delta kv=13.8
~ wdg=2 bus=82381965289784.1.2.3.0 conn=wye kv=0.38

new transformer.UNTRMT_5289785 phases=3 windings=2 %r=1.46 xhl=3.18 kva=112.0
~ wdg=1 bus=82382605002409.1.2.3 conn=delta kv=13.8
~ wdg=2 bus=82382605289785.1.2.3.0 conn=wye kv=0.38

new transformer.UNTRMT_5289786 phases=3 windings=2 %r=1.78 xhl=3.01 kva=30.0
~ wdg=1 bus=82380585002409.1.2.3 conn=delta kv=13.8
~ wdg=2 bus=82380585289786.1.2.3.0 conn=wye kv=0.38

new transformer.UNTRMT_5289787 phases=3 windings=2 %r=1.55 xhl=3.14 kva=75.0
~ wdg=1 bus=82370815002409.1.2.3 conn=delta kv=13.8
~ wdg=2 bus=82370815289787.1.2.3.0 conn=wye kv=0.38

new transformer.UNTRMT_5289788 phases=3 windings=2 %r=1.46 xhl=3.18 kva=112.0
~ wdg=1 bus=82375155002409.1.2.3 conn=delta kv=13.8
~ wdg=2 bus=82375155289788.1.2.3.0 conn=wye kv=0.38

new transformer.UNTRMT_5289789 phases=3 windings=2 %r=1.39 xhl=3.21 kva=150.0
~ wdg=1 bus=82380895002409.1.2.3 conn=delta kv=13.8
~ wdg=2 bus=82380895289789.1.2.3.0 conn=wye kv=0.38

new transformer.UNTRMT_5289790 phases=3 windings=2 %r=1.55 xhl=3.14 kva=75.0
~ wdg=1 bus=82380985002409.1.2.3 conn=delta kv=13.8
~ wdg=2 bus=82380985289790.1.2.3.0 conn=wye kv=0.38

new transformer.UNTRMT_5289791 phases=3 windings=2 %r=1.55 xhl=3.14 kva=75.0
...